# opt freq=noraman b3lyp/3-21g

CH4

0 1
 C                 -0.68204900   -0.02010800    0.00004900
 H                 -1.07975500    0.99707500   -0.00140600
 H                 -1.06897100   -0.53813100   -0.89103400
 H                 -1.06926800   -0.53601700    0.89205600
 O                  0.76937400    0.12389300    0.00001900
 H                  1.15529500   -0.79342900   -0.00006600

