pentane conformer 12
     RDKit          3D

 17 16  0  0  0  0  0  0  0  0999 V2000
   -2.5053   -0.3496   -0.1047 C   0  0  0  0  0  0  0  0  0  0  0  0
   -1.2030   -0.3414   -0.8892 C   0  0  0  0  0  0  0  0  0  0  0  0
   -0.0227    0.0730   -0.0111 C   0  0  0  0  0  0  0  0  0  0  0  0
    1.2843    0.0799   -0.8035 C   0  0  0  0  0  0  0  0  0  0  0  0
    2.4612    0.4917    0.0665 C   0  0  0  0  0  0  0  0  0  0  0  0
   -2.7280    0.6444    0.2963 H   0  0  0  0  0  0  0  0  0  0  0  0
   -2.4553   -1.0544    0.7314 H   0  0  0  0  0  0  0  0  0  0  0  0
   -3.3358   -0.6487   -0.7518 H   0  0  0  0  0  0  0  0  0  0  0  0
   -1.0265   -1.3410   -1.3032 H   0  0  0  0  0  0  0  0  0  0  0  0
   -1.2977    0.3484   -1.7359 H   0  0  0  0  0  0  0  0  0  0  0  0
    0.0651   -0.6176    0.8366 H   0  0  0  0  0  0  0  0  0  0  0  0
   -0.2061    1.0716    0.4040 H   0  0  0  0  0  0  0  0  0  0  0  0
    1.2032    0.7721   -1.6497 H   0  0  0  0  0  0  0  0  0  0  0  0
    1.4745   -0.9174   -1.2170 H   0  0  0  0  0  0  0  0  0  0  0  0
    2.3171    1.4990    0.4702 H   0  0  0  0  0  0  0  0  0  0  0  0
    3.3852    0.4898   -0.5202 H   0  0  0  0  0  0  0  0  0  0  0  0
    2.5899   -0.1998    0.9053 H   0  0  0  0  0  0  0  0  0  0  0  0
  1  2  1  0
  2  3  1  0
  3  4  1  0
  4  5  1  0
  1  6  1  0
  1  7  1  0
  1  8  1  0
  2  9  1  0
  2 10  1  0
  3 11  1  0
  3 12  1  0
  4 13  1  0
  4 14  1  0
  5 15  1  0
  5 16  1  0
  5 17  1  0
M  END
>  <Energy>  (1) 
-5.271752450557498

$$$$
pentane conformer 3
     RDKit          3D

 17 16  0  0  0  0  0  0  0  0999 V2000
    2.1814   -0.3550   -0.1323 C   0  0  0  0  0  0  0  0  0  0  0  0
    1.2914    0.8014    0.2961 C   0  0  0  0  0  0  0  0  0  0  0  0
   -0.1293    0.7198   -0.2662 C   0  0  0  0  0  0  0  0  0  0  0  0
   -0.9253   -0.4712    0.2692 C   0  0  0  0  0  0  0  0  0  0  0  0
   -2.3604   -0.4504   -0.2348 C   0  0  0  0  0  0  0  0  0  0  0  0
    1.8359   -1.3043    0.2872 H   0  0  0  0  0  0  0  0  0  0  0  0
    3.2051   -0.1910    0.2196 H   0  0  0  0  0  0  0  0  0  0  0  0
    2.2090   -0.4470   -1.2227 H   0  0  0  0  0  0  0  0  0  0  0  0
    1.2575    0.8496    1.3907 H   0  0  0  0  0  0  0  0  0  0  0  0
    1.7475    1.7373   -0.0481 H   0  0  0  0  0  0  0  0  0  0  0  0
   -0.6541    1.6476   -0.0064 H   0  0  0  0  0  0  0  0  0  0  0  0
   -0.0894    0.6763   -1.3615 H   0  0  0  0  0  0  0  0  0  0  0  0
   -0.4586   -1.4119   -0.0417 H   0  0  0  0  0  0  0  0  0  0  0  0
   -0.9292   -0.4546    1.3651 H   0  0  0  0  0  0  0  0  0  0  0  0
   -2.3927   -0.4942   -1.3281 H   0  0  0  0  0  0  0  0  0  0  0  0
   -2.9118   -1.3112    0.1564 H   0  0  0  0  0  0  0  0  0  0  0  0
   -2.8771    0.4589    0.0886 H   0  0  0  0  0  0  0  0  0  0  0  0
  1  2  1  0
  2  3  1  0
  3  4  1  0
  4  5  1  0
  1  6  1  0
  1  7  1  0
  1  8  1  0
  2  9  1  0
  2 10  1  0
  3 11  1  0
  3 12  1  0
  4 13  1  0
  4 14  1  0
  5 15  1  0
  5 16  1  0
  5 17  1  0
M  END
>  <Energy>  (2) 
-4.441838202564149

$$$$
pentane conformer 14
     RDKit          3D

 17 16  0  0  0  0  0  0  0  0999 V2000
   -1.9373    0.4300    0.0024 C   0  0  0  0  0  0  0  0  0  0  0  0
   -1.0305   -0.7567    0.2885 C   0  0  0  0  0  0  0  0  0  0  0  0
    0.1410   -0.8808   -0.6887 C   0  0  0  0  0  0  0  0  0  0  0  0
    1.1020    0.3099   -0.7247 C   0  0  0  0  0  0  0  0  0  0  0  0
    1.7743    0.5886    0.6105 C   0  0  0  0  0  0  0  0  0  0  0  0
   -2.3000    0.4077   -1.0300 H   0  0  0  0  0  0  0  0  0  0  0  0
   -2.8068    0.4070    0.6673 H   0  0  0  0  0  0  0  0  0  0  0  0
   -1.4196    1.3793    0.1680 H   0  0  0  0  0  0  0  0  0  0  0  0
   -1.6284   -1.6741    0.2265 H   0  0  0  0  0  0  0  0  0  0  0  0
   -0.6637   -0.6973    1.3190 H   0  0  0  0  0  0  0  0  0  0  0  0
   -0.2553   -1.0367   -1.6999 H   0  0  0  0  0  0  0  0  0  0  0  0
    0.7071   -1.7864   -0.4375 H   0  0  0  0  0  0  0  0  0  0  0  0
    1.8801    0.1010   -1.4689 H   0  0  0  0  0  0  0  0  0  0  0  0
    0.5815    1.2107   -1.0678 H   0  0  0  0  0  0  0  0  0  0  0  0
    2.2833   -0.3037    0.9882 H   0  0  0  0  0  0  0  0  0  0  0  0
    2.5206    1.3815    0.4968 H   0  0  0  0  0  0  0  0  0  0  0  0
    1.0516    0.9201    1.3618 H   0  0  0  0  0  0  0  0  0  0  0  0
  1  2  1  0
  2  3  1  0
  3  4  1  0
  4  5  1  0
  1  6  1  0
  1  7  1  0
  1  8  1  0
  2  9  1  0
  2 10  1  0
  3 11  1  0
  3 12  1  0
  4 13  1  0
  4 14  1  0
  5 15  1  0
  5 16  1  0
  5 17  1  0
M  END
>  <Energy>  (3) 
-3.8485816755850966

$$$$
