pentane conformer 188 65
     RDKit          3D

 17 16  0  0  0  0  0  0  0  0999 V2000
   -1.5708   -0.7166   -1.3517 C   0  0  0  0  0  0  0  0  0  0  0  0
   -1.6646    0.8006   -1.3768 C   0  0  0  0  0  0  0  0  0  0  0  0
   -1.9084    1.3700    0.0205 C   0  0  0  0  0  0  0  0  0  0  0  0
   -2.0020    2.8953   -0.0092 C   0  0  0  0  0  0  0  0  0  0  0  0
   -2.2445    3.4658    1.3791 C   0  0  0  0  0  0  0  0  0  0  0  0
   -1.3964   -1.1024   -2.3610 H   0  0  0  0  0  0  0  0  0  0  0  0
   -0.7452   -1.0482   -0.7139 H   0  0  0  0  0  0  0  0  0  0  0  0
   -2.4972   -1.1608   -0.9736 H   0  0  0  0  0  0  0  0  0  0  0  0
   -0.7359    1.2114   -1.7897 H   0  0  0  0  0  0  0  0  0  0  0  0
   -2.4782    1.0995   -2.0480 H   0  0  0  0  0  0  0  0  0  0  0  0
   -2.8361    0.9527    0.4307 H   0  0  0  0  0  0  0  0  0  0  0  0
   -1.0941    1.0647    0.6890 H   0  0  0  0  0  0  0  0  0  0  0  0
   -1.0751    3.3175   -0.4146 H   0  0  0  0  0  0  0  0  0  0  0  0
   -2.8174    3.2055   -0.6729 H   0  0  0  0  0  0  0  0  0  0  0  0
   -3.1815    3.0879    1.8003 H   0  0  0  0  0  0  0  0  0  0  0  0
   -1.4295    3.2005    2.0601 H   0  0  0  0  0  0  0  0  0  0  0  0
   -2.3080    4.5575    1.3344 H   0  0  0  0  0  0  0  0  0  0  0  0
  1  2  1  0
  2  3  1  0
  3  4  1  0
  4  5  1  0
  1  6  1  0
  1  7  1  0
  1  8  1  0
  2  9  1  0
  2 10  1  0
  3 11  1  0
  3 12  1  0
  4 13  1  0
  4 14  1  0
  5 15  1  0
  5 16  1  0
  5 17  1  0
M  END
>  <Energy>  (1) 
-5.271752450599814

$$$$
pentane conformer 188 4
     RDKit          3D

 17 16  0  0  0  0  0  0  0  0999 V2000
   -2.0273    1.6731    0.2952 C   0  0  0  0  0  0  0  0  0  0  0  0
   -1.9249    0.2557   -0.2465 C   0  0  0  0  0  0  0  0  0  0  0  0
   -0.6494   -0.4721    0.1836 C   0  0  0  0  0  0  0  0  0  0  0  0
   -0.5786   -0.7322    1.6888 C   0  0  0  0  0  0  0  0  0  0  0  0
    0.6524   -1.5482    2.0530 C   0  0  0  0  0  0  0  0  0  0  0  0
   -2.9076    2.1719   -0.1230 H   0  0  0  0  0  0  0  0  0  0  0  0
   -2.1298    1.6803    1.3842 H   0  0  0  0  0  0  0  0  0  0  0  0
   -1.1448    2.2618    0.0258 H   0  0  0  0  0  0  0  0  0  0  0  0
   -2.8053   -0.3184    0.0648 H   0  0  0  0  0  0  0  0  0  0  0  0
   -1.9466    0.2996   -1.3420 H   0  0  0  0  0  0  0  0  0  0  0  0
   -0.6065   -1.4307   -0.3483 H   0  0  0  0  0  0  0  0  0  0  0  0
    0.2279    0.1045   -0.1344 H   0  0  0  0  0  0  0  0  0  0  0  0
   -0.5459    0.2149    2.2379 H   0  0  0  0  0  0  0  0  0  0  0  0
   -1.4757   -1.2697    2.0170 H   0  0  0  0  0  0  0  0  0  0  0  0
    0.6395   -2.5225    1.5541 H   0  0  0  0  0  0  0  0  0  0  0  0
    1.5694   -1.0252    1.7631 H   0  0  0  0  0  0  0  0  0  0  0  0
    0.6866   -1.7208    3.1333 H   0  0  0  0  0  0  0  0  0  0  0  0
  1  2  1  0
  2  3  1  0
  3  4  1  0
  4  5  1  0
  1  6  1  0
  1  7  1  0
  1  8  1  0
  2  9  1  0
  2 10  1  0
  3 11  1  0
  3 12  1  0
  4 13  1  0
  4 14  1  0
  5 15  1  0
  5 16  1  0
  5 17  1  0
M  END
>  <Energy>  (2) 
-4.441838202461181

$$$$
pentane conformer 188 0
     RDKit          3D

 17 16  0  0  0  0  0  0  0  0999 V2000
   -2.5003    1.2682    0.3095 C   0  0  0  0  0  0  0  0  0  0  0  0
   -1.7407    0.1284   -0.3508 C   0  0  0  0  0  0  0  0  0  0  0  0
   -0.3373   -0.0841    0.2221 C   0  0  0  0  0  0  0  0  0  0  0  0
   -0.2754   -0.4227    1.7135 C   0  0  0  0  0  0  0  0  0  0  0  0
   -1.0108   -1.7031    2.0769 C   0  0  0  0  0  0  0  0  0  0  0  0
   -3.4506    1.4355   -0.2078 H   0  0  0  0  0  0  0  0  0  0  0  0
   -2.7283    1.0450    1.3558 H   0  0  0  0  0  0  0  0  0  0  0  0
   -1.9252    2.1987    0.2703 H   0  0  0  0  0  0  0  0  0  0  0  0
   -2.3271   -0.7939   -0.2769 H   0  0  0  0  0  0  0  0  0  0  0  0
   -1.6452    0.3482   -1.4211 H   0  0  0  0  0  0  0  0  0  0  0  0
    0.1503   -0.8871   -0.3447 H   0  0  0  0  0  0  0  0  0  0  0  0
    0.2582    0.8207    0.0474 H   0  0  0  0  0  0  0  0  0  0  0  0
    0.7782   -0.5344    1.9970 H   0  0  0  0  0  0  0  0  0  0  0  0
   -0.6686    0.4075    2.3103 H   0  0  0  0  0  0  0  0  0  0  0  0
   -2.0895   -1.6027    1.9252 H   0  0  0  0  0  0  0  0  0  0  0  0
   -0.6528   -2.5459    1.4772 H   0  0  0  0  0  0  0  0  0  0  0  0
   -0.8460   -1.9442    3.1320 H   0  0  0  0  0  0  0  0  0  0  0  0
  1  2  1  0
  2  3  1  0
  3  4  1  0
  4  5  1  0
  1  6  1  0
  1  7  1  0
  1  8  1  0
  2  9  1  0
  2 10  1  0
  3 11  1  0
  3 12  1  0
  4 13  1  0
  4 14  1  0
  5 15  1  0
  5 16  1  0
  5 17  1  0
M  END
>  <Energy>  (3) 
-3.8485816754432634

$$$$
pentane conformer 188 8
     RDKit          3D

 17 16  0  0  0  0  0  0  0  0999 V2000
   -1.9387    1.7284    0.2519 C   0  0  0  0  0  0  0  0  0  0  0  0
   -1.9128    0.2914   -0.2384 C   0  0  0  0  0  0  0  0  0  0  0  0
   -0.6785   -0.5053    0.1941 C   0  0  0  0  0  0  0  0  0  0  0  0
   -0.5525   -0.7238    1.7045 C   0  0  0  0  0  0  0  0  0  0  0  0
    0.3323    0.3071    2.3907 C   0  0  0  0  0  0  0  0  0  0  0  0
   -2.7677    2.2692   -0.2162 H   0  0  0  0  0  0  0  0  0  0  0  0
   -2.0888    1.7761    1.3341 H   0  0  0  0  0  0  0  0  0  0  0  0
   -1.0099    2.2497    0.0004 H   0  0  0  0  0  0  0  0  0  0  0  0
   -2.8213   -0.2218    0.0982 H   0  0  0  0  0  0  0  0  0  0  0  0
   -1.9471    0.2991   -1.3347 H   0  0  0  0  0  0  0  0  0  0  0  0
   -0.7542   -1.4919   -0.2814 H   0  0  0  0  0  0  0  0  0  0  0  0
    0.2296   -0.0406   -0.2079 H   0  0  0  0  0  0  0  0  0  0  0  0
   -1.5399   -0.7480    2.1789 H   0  0  0  0  0  0  0  0  0  0  0  0
   -0.0994   -1.7086    1.8736 H   0  0  0  0  0  0  0  0  0  0  0  0
    1.3411    0.2999    1.9653 H   0  0  0  0  0  0  0  0  0  0  0  0
   -0.0683    1.3190    2.2992 H   0  0  0  0  0  0  0  0  0  0  0  0
    0.4174    0.0768    3.4576 H   0  0  0  0  0  0  0  0  0  0  0  0
  1  2  1  0
  2  3  1  0
  3  4  1  0
  4  5  1  0
  1  6  1  0
  1  7  1  0
  1  8  1  0
  2  9  1  0
  2 10  1  0
  3 11  1  0
  3 12  1  0
  4 13  1  0
  4 14  1  0
  5 15  1  0
  5 16  1  0
  5 17  1  0
M  END
>  <Energy>  (4) 
-1.5717219056825054

$$$$
