%mem=60GB
%nprocshared=36
# opt=(calcfc,maxcycles=100,maxstep=5) freq=noraman uwb97xd/lanl2dz

Ir_cat_022

1 3
 C                 -6.03243800    0.50699400   -1.48776000
 C                 -4.77625100    0.32619000   -0.66156400
 C                 -4.78223500    0.14533100    0.71508100
 C                 -6.04632400    0.09916200    1.55172900
 C                 -3.52755300   -0.01326700    1.42777900
 C                 -3.41186200   -0.20632700    2.82026600
 C                 -2.15326900   -0.35600500    3.41372500
 C                 -0.99801200   -0.30653900    2.61513400
 N                 -1.07202800   -0.11075700    1.29347900
 C                 -2.31203600    0.02478200    0.68614600
 C                 -2.30784200    0.19355600   -0.69912800
 C                 -3.51801000    0.35201800   -1.40748200
 C                 -3.43196500    0.52735400   -2.81049900
 C                 -2.14233300    0.55288900   -3.44213300
 C                 -0.99683700    0.39541100   -2.70776100
 N                 -1.04479400    0.19461200   -1.32885800
 Ir                 0.46571100   -0.01533400   -0.06560300
 C                  0.84716000    2.00159500    0.15721400
 C                  1.81669800    2.49184500   -0.75129800
 C                  2.09691700    3.86835300   -0.79967100
 C                  1.42841600    4.74404100    0.06108600
 C                  0.46545900    4.27365500    0.97928600
 C                 -0.27639600    5.24106400    1.87413700
 C                  0.19855900    2.89207200    1.02410500
 N                  1.96078800    0.21522400   -1.48428300
 C                  2.46194000   -0.80161500   -2.22869800
 C                  3.48116900   -0.59686200   -3.15418300
 C                  4.00063500    0.69831800   -3.30974100
 C                  3.48361500    1.74119500   -2.53852800
 C                  2.45223000    1.48910700   -1.62062800
 N                  2.01766700   -0.38997400    1.36399300
 C                  2.69835700    0.58073800    2.03100100
 C                  3.72087700    0.29255600    2.92851700
 C                  4.06711900   -1.04955200    3.15221900
 C                  3.37086300   -2.04815300    2.47371600
 C                  2.34110400   -1.70835000    1.57961300
 C                  1.53352400   -2.66876400    0.82565800
 C                  0.56576400   -2.09410000   -0.01553500
 C                 -0.28122900   -2.92812600   -0.76527200
 C                 -0.16556600   -4.32872300   -0.68699800
 C                 -1.08900200   -5.22967800   -1.47720400
 C                  0.82099400   -4.88592900    0.15629100
 C                  1.66316500   -4.06883800    0.91008700
 H                 -6.00595100    1.46326600   -2.02275400
 H                 -6.94513000    0.49256800   -0.89603500
 H                 -6.11740300   -0.28670000   -2.23906600
 H                 -6.95274300    0.21800800    0.96244300
 H                 -6.04446100    0.89512700    2.30500400
 H                 -6.12853200   -0.85806700    2.07879100
 H                 -4.29720500   -0.24481100    3.44337100
 H                 -2.05303700   -0.51308500    4.47923100
 H                 -0.01098700   -0.42254800    3.04385400
 H                 -4.31971900    0.65091400   -3.41583100
 H                 -2.06811800    0.70085000   -4.51194100
 H                 -0.01489100    0.41600200   -3.16069900
 H                  2.82206300    4.27128600   -1.49955500
 H                  1.64925300    5.80624100    0.02179600
 H                 -0.74662900    4.72769600    2.71716100
 H                 -1.06675500    5.75210400    1.31254700
 H                  0.39344800    6.00982400    2.27124200
 H                 -0.53751500    2.52042000    1.73213700
 H                  2.02300700   -1.77718400   -2.06884200
 H                  3.85488200   -1.43032600   -3.73375400
 H                  4.79563800    0.88855600   -4.02093900
 H                  3.87661600    2.74366200   -2.64403400
 H                  2.40448500    1.60088800    1.83666800
 H                  4.22973600    1.10200100    3.43471000
 H                  4.86161900   -1.30695700    3.84256500
 H                  3.61760000   -3.08961600    2.63101300
 H                 -1.03812300   -2.49675800   -1.41392800
 H                 -1.77745100   -5.75729700   -0.80753300
 H                 -0.52391800   -5.98800200   -2.02887000
 H                 -1.68791300   -4.66175900   -2.19382900
 H                  0.91814200   -5.96529800    0.21986900
 H                  2.40637500   -4.52838200    1.55407200

