pentane conformer 14 0
     RDKit          3D

 17 16  0  0  0  0  0  0  0  0999 V2000
   -1.1266   -1.0260   -1.5270 C   0  0  0  0  0  0  0  0  0  0  0  0
   -1.4551   -0.9589   -0.0440 C   0  0  0  0  0  0  0  0  0  0  0  0
   -0.8217    0.2661    0.6151 C   0  0  0  0  0  0  0  0  0  0  0  0
   -1.1543    0.3298    2.1055 C   0  0  0  0  0  0  0  0  0  0  0  0
   -0.5260    1.5470    2.7651 C   0  0  0  0  0  0  0  0  0  0  0  0
   -0.0455   -1.0898   -1.6868 H   0  0  0  0  0  0  0  0  0  0  0  0
   -1.5894   -1.9093   -1.9781 H   0  0  0  0  0  0  0  0  0  0  0  0
   -1.5003   -0.1411   -2.0520 H   0  0  0  0  0  0  0  0  0  0  0  0
   -1.0969   -1.8721    0.4452 H   0  0  0  0  0  0  0  0  0  0  0  0
   -2.5436   -0.9286    0.0821 H   0  0  0  0  0  0  0  0  0  0  0  0
   -1.1798    1.1767    0.1193 H   0  0  0  0  0  0  0  0  0  0  0  0
    0.2667    0.2333    0.4824 H   0  0  0  0  0  0  0  0  0  0  0  0
   -2.2412    0.3670    2.2434 H   0  0  0  0  0  0  0  0  0  0  0  0
   -0.7945   -0.5765    2.6066 H   0  0  0  0  0  0  0  0  0  0  0  0
   -0.8902    2.4727    2.3081 H   0  0  0  0  0  0  0  0  0  0  0  0
   -0.7767    1.5727    3.8302 H   0  0  0  0  0  0  0  0  0  0  0  0
    0.5645    1.5240    2.6732 H   0  0  0  0  0  0  0  0  0  0  0  0
  1  2  1  0
  2  3  1  0
  3  4  1  0
  4  5  1  0
  1  6  1  0
  1  7  1  0
  1  8  1  0
  2  9  1  0
  2 10  1  0
  3 11  1  0
  3 12  1  0
  4 13  1  0
  4 14  1  0
  5 15  1  0
  5 16  1  0
  5 17  1  0
M  END
>  <Energy>  (1) 
-5.271752450337403

$$$$
pentane conformer 14 1
     RDKit          3D

 17 16  0  0  0  0  0  0  0  0999 V2000
   -1.2871   -0.8190   -1.5449 C   0  0  0  0  0  0  0  0  0  0  0  0
   -1.5685   -0.7796   -0.0505 C   0  0  0  0  0  0  0  0  0  0  0  0
   -0.4695   -0.0305    0.7040 C   0  0  0  0  0  0  0  0  0  0  0  0
   -0.7593    0.1273    2.1981 C   0  0  0  0  0  0  0  0  0  0  0  0
   -0.7799   -1.1916    2.9553 C   0  0  0  0  0  0  0  0  0  0  0  0
   -0.3386   -1.3246   -1.7520 H   0  0  0  0  0  0  0  0  0  0  0  0
   -2.0823   -1.3613   -2.0660 H   0  0  0  0  0  0  0  0  0  0  0  0
   -1.2365    0.1920   -1.9617 H   0  0  0  0  0  0  0  0  0  0  0  0
   -1.6503   -1.8079    0.3176 H   0  0  0  0  0  0  0  0  0  0  0  0
   -2.5359   -0.2934    0.1201 H   0  0  0  0  0  0  0  0  0  0  0  0
   -0.3551    0.9706    0.2699 H   0  0  0  0  0  0  0  0  0  0  0  0
    0.4899   -0.5446    0.5678 H   0  0  0  0  0  0  0  0  0  0  0  0
    0.0157    0.7676    2.6361 H   0  0  0  0  0  0  0  0  0  0  0  0
   -1.7152    0.6447    2.3405 H   0  0  0  0  0  0  0  0  0  0  0  0
    0.1520   -1.7456    2.8055 H   0  0  0  0  0  0  0  0  0  0  0  0
   -0.8950   -1.0065    4.0282 H   0  0  0  0  0  0  0  0  0  0  0  0
   -1.6142   -1.8238    2.6377 H   0  0  0  0  0  0  0  0  0  0  0  0
  1  2  1  0
  2  3  1  0
  3  4  1  0
  4  5  1  0
  1  6  1  0
  1  7  1  0
  1  8  1  0
  2  9  1  0
  2 10  1  0
  3 11  1  0
  3 12  1  0
  4 13  1  0
  4 14  1  0
  5 15  1  0
  5 16  1  0
  5 17  1  0
M  END
>  <Energy>  (2) 
-4.441838202708688

$$$$
pentane conformer 14 2
     RDKit          3D

 17 16  0  0  0  0  0  0  0  0999 V2000
   -1.8690   -0.7797   -1.4952 C   0  0  0  0  0  0  0  0  0  0  0  0
   -1.7031   -0.5473   -0.0017 C   0  0  0  0  0  0  0  0  0  0  0  0
   -0.2996   -0.0806    0.3925 C   0  0  0  0  0  0  0  0  0  0  0  0
    0.1594    1.2387   -0.2333 C   0  0  0  0  0  0  0  0  0  0  0  0
   -0.7272    2.4213    0.1237 C   0  0  0  0  0  0  0  0  0  0  0  0
   -1.1136   -1.4769   -1.8709 H   0  0  0  0  0  0  0  0  0  0  0  0
   -2.8559   -1.2064   -1.7014 H   0  0  0  0  0  0  0  0  0  0  0  0
   -1.7889    0.1551   -2.0577 H   0  0  0  0  0  0  0  0  0  0  0  0
   -1.9120   -1.4881    0.5220 H   0  0  0  0  0  0  0  0  0  0  0  0
   -2.4552    0.1707    0.3431 H   0  0  0  0  0  0  0  0  0  0  0  0
    0.4227   -0.8615    0.1233 H   0  0  0  0  0  0  0  0  0  0  0  0
   -0.2594    0.0117    1.4850 H   0  0  0  0  0  0  0  0  0  0  0  0
    1.1774    1.4491    0.1167 H   0  0  0  0  0  0  0  0  0  0  0  0
    0.2218    1.1433   -1.3228 H   0  0  0  0  0  0  0  0  0  0  0  0
   -0.8258    2.5254    1.2088 H   0  0  0  0  0  0  0  0  0  0  0  0
   -0.2934    3.3473   -0.2673 H   0  0  0  0  0  0  0  0  0  0  0  0
   -1.7273    2.3171   -0.3072 H   0  0  0  0  0  0  0  0  0  0  0  0
  1  2  1  0
  2  3  1  0
  3  4  1  0
  4  5  1  0
  1  6  1  0
  1  7  1  0
  1  8  1  0
  2  9  1  0
  2 10  1  0
  3 11  1  0
  3 12  1  0
  4 13  1  0
  4 14  1  0
  5 15  1  0
  5 16  1  0
  5 17  1  0
M  END
>  <Energy>  (3) 
-3.8485816779081254

$$$$
pentane conformer 3 3
     RDKit          3D

 17 16  0  0  0  0  0  0  0  0999 V2000
    1.7017   -0.8865   -0.4858 C   0  0  0  0  0  0  0  0  0  0  0  0
    1.4692    0.2507    0.4933 C   0  0  0  0  0  0  0  0  0  0  0  0
   -0.0048    0.5839    0.7417 C   0  0  0  0  0  0  0  0  0  0  0  0
   -0.7587    1.1113   -0.4824 C   0  0  0  0  0  0  0  0  0  0  0  0
   -1.5158    0.0278   -1.2367 C   0  0  0  0  0  0  0  0  0  0  0  0
    1.1260   -1.7742   -0.2059 H   0  0  0  0  0  0  0  0  0  0  0  0
    2.7618   -1.1604   -0.4972 H   0  0  0  0  0  0  0  0  0  0  0  0
    1.4297   -0.5955   -1.5043 H   0  0  0  0  0  0  0  0  0  0  0  0
    1.9242   -0.0209    1.4537 H   0  0  0  0  0  0  0  0  0  0  0  0
    1.9965    1.1450    0.1404 H   0  0  0  0  0  0  0  0  0  0  0  0
   -0.5200   -0.2838    1.1706 H   0  0  0  0  0  0  0  0  0  0  0  0
   -0.0286    1.3659    1.5118 H   0  0  0  0  0  0  0  0  0  0  0  0
   -1.4959    1.8490   -0.1415 H   0  0  0  0  0  0  0  0  0  0  0  0
   -0.0795    1.6385   -1.1616 H   0  0  0  0  0  0  0  0  0  0  0  0
   -2.2415   -0.4675   -0.5835 H   0  0  0  0  0  0  0  0  0  0  0  0
   -2.0659    0.4691   -2.0741 H   0  0  0  0  0  0  0  0  0  0  0  0
   -0.8472   -0.7347   -1.6423 H   0  0  0  0  0  0  0  0  0  0  0  0
  1  2  1  0
  2  3  1  0
  3  4  1  0
  4  5  1  0
  1  6  1  0
  1  7  1  0
  1  8  1  0
  2  9  1  0
  2 10  1  0
  3 11  1  0
  3 12  1  0
  4 13  1  0
  4 14  1  0
  5 15  1  0
  5 16  1  0
  5 17  1  0
M  END
>  <Energy>  (4) 
-1.5717219062380012

$$$$
