pentane conformer 15
     RDKit          3D

 17 16  0  0  0  0  0  0  0  0999 V2000
   -2.4703   -0.5398   -0.2511 C   0  0  0  0  0  0  0  0  0  0  0  0
   -1.3044    0.4302   -0.1450 C   0  0  0  0  0  0  0  0  0  0  0  0
    0.0295   -0.3075   -0.0326 C   0  0  0  0  0  0  0  0  0  0  0  0
    1.1987    0.6712    0.0738 C   0  0  0  0  0  0  0  0  0  0  0  0
    2.5278   -0.0587    0.1858 C   0  0  0  0  0  0  0  0  0  0  0  0
   -2.5257   -1.1847    0.6317 H   0  0  0  0  0  0  0  0  0  0  0  0
   -2.3719   -1.1762   -1.1363 H   0  0  0  0  0  0  0  0  0  0  0  0
   -3.4140    0.0090   -0.3305 H   0  0  0  0  0  0  0  0  0  0  0  0
   -1.2969    1.0811   -1.0270 H   0  0  0  0  0  0  0  0  0  0  0  0
   -1.4498    1.0727    0.7312 H   0  0  0  0  0  0  0  0  0  0  0  0
    0.0153   -0.9604    0.8487 H   0  0  0  0  0  0  0  0  0  0  0  0
    0.1682   -0.9519   -0.9093 H   0  0  0  0  0  0  0  0  0  0  0  0
    1.0670    1.3149    0.9512 H   0  0  0  0  0  0  0  0  0  0  0  0
    1.2199    1.3234   -0.8070 H   0  0  0  0  0  0  0  0  0  0  0  0
    3.3498    0.6601    0.2608 H   0  0  0  0  0  0  0  0  0  0  0  0
    2.7053   -0.6874   -0.6925 H   0  0  0  0  0  0  0  0  0  0  0  0
    2.5516   -0.6960    1.0755 H   0  0  0  0  0  0  0  0  0  0  0  0
  1  2  1  0
  2  3  1  0
  3  4  1  0
  4  5  1  0
  1  6  1  0
  1  7  1  0
  1  8  1  0
  2  9  1  0
  2 10  1  0
  3 11  1  0
  3 12  1  0
  4 13  1  0
  4 14  1  0
  5 15  1  0
  5 16  1  0
  5 17  1  0
M  END
>  <Energy>  (1) 
-5.271752450478151

$$$$
pentane conformer 13
     RDKit          3D

 17 16  0  0  0  0  0  0  0  0999 V2000
   -2.3450   -0.3756   -0.4180 C   0  0  0  0  0  0  0  0  0  0  0  0
   -0.9340    0.1848   -0.5130 C   0  0  0  0  0  0  0  0  0  0  0  0
   -0.1247   -0.1266    0.7466 C   0  0  0  0  0  0  0  0  0  0  0  0
    1.2684    0.5063    0.7439 C   0  0  0  0  0  0  0  0  0  0  0  0
    2.1866   -0.0511   -0.3327 C   0  0  0  0  0  0  0  0  0  0  0  0
   -2.8834    0.0578    0.4309 H   0  0  0  0  0  0  0  0  0  0  0  0
   -2.9062   -0.1453   -1.3290 H   0  0  0  0  0  0  0  0  0  0  0  0
   -2.3274   -1.4633   -0.2954 H   0  0  0  0  0  0  0  0  0  0  0  0
   -0.4458   -0.2433   -1.3949 H   0  0  0  0  0  0  0  0  0  0  0  0
   -0.9877    1.2693   -0.6631 H   0  0  0  0  0  0  0  0  0  0  0  0
   -0.0349   -1.2128    0.8700 H   0  0  0  0  0  0  0  0  0  0  0  0
   -0.6685    0.2464    1.6234 H   0  0  0  0  0  0  0  0  0  0  0  0
    1.1846    1.5928    0.6254 H   0  0  0  0  0  0  0  0  0  0  0  0
    1.7317    0.3293    1.7220 H   0  0  0  0  0  0  0  0  0  0  0  0
    1.8305    0.2033   -1.3352 H   0  0  0  0  0  0  0  0  0  0  0  0
    2.2642   -1.1403   -0.2581 H   0  0  0  0  0  0  0  0  0  0  0  0
    3.1918    0.3683   -0.2226 H   0  0  0  0  0  0  0  0  0  0  0  0
  1  2  1  0
  2  3  1  0
  3  4  1  0
  4  5  1  0
  1  6  1  0
  1  7  1  0
  1  8  1  0
  2  9  1  0
  2 10  1  0
  3 11  1  0
  3 12  1  0
  4 13  1  0
  4 14  1  0
  5 15  1  0
  5 16  1  0
  5 17  1  0
M  END
>  <Energy>  (2) 
-4.441838202843136

$$$$
pentane conformer 7
     RDKit          3D

 17 16  0  0  0  0  0  0  0  0999 V2000
    1.8232   -0.0549   -0.8469 C   0  0  0  0  0  0  0  0  0  0  0  0
    0.9358   -0.9339    0.0204 C   0  0  0  0  0  0  0  0  0  0  0  0
    0.0814   -0.1463    1.0167 C   0  0  0  0  0  0  0  0  0  0  0  0
   -0.8945    0.8596    0.4016 C   0  0  0  0  0  0  0  0  0  0  0  0
   -1.9173    0.2241   -0.5270 C   0  0  0  0  0  0  0  0  0  0  0  0
    2.4529    0.5960   -0.2323 H   0  0  0  0  0  0  0  0  0  0  0  0
    2.4797   -0.6769   -1.4639 H   0  0  0  0  0  0  0  0  0  0  0  0
    1.2312    0.5710   -1.5211 H   0  0  0  0  0  0  0  0  0  0  0  0
    1.5750   -1.6231    0.5855 H   0  0  0  0  0  0  0  0  0  0  0  0
    0.3006   -1.5569   -0.6187 H   0  0  0  0  0  0  0  0  0  0  0  0
    0.7447    0.3914    1.7057 H   0  0  0  0  0  0  0  0  0  0  0  0
   -0.4837   -0.8605    1.6286 H   0  0  0  0  0  0  0  0  0  0  0  0
   -0.3481    1.6422   -0.1361 H   0  0  0  0  0  0  0  0  0  0  0  0
   -1.4296    1.3617    1.2168 H   0  0  0  0  0  0  0  0  0  0  0  0
   -2.6450    0.9740   -0.8535 H   0  0  0  0  0  0  0  0  0  0  0  0
   -1.4437   -0.1890   -1.4224 H   0  0  0  0  0  0  0  0  0  0  0  0
   -2.4625   -0.5787   -0.0208 H   0  0  0  0  0  0  0  0  0  0  0  0
  1  2  1  0
  2  3  1  0
  3  4  1  0
  4  5  1  0
  1  6  1  0
  1  7  1  0
  1  8  1  0
  2  9  1  0
  2 10  1  0
  3 11  1  0
  3 12  1  0
  4 13  1  0
  4 14  1  0
  5 15  1  0
  5 16  1  0
  5 17  1  0
M  END
>  <Energy>  (3) 
-3.8485816775328736

$$$$
pentane conformer 19
     RDKit          3D

 17 16  0  0  0  0  0  0  0  0999 V2000
   -1.5905    0.9127    0.3308 C   0  0  0  0  0  0  0  0  0  0  0  0
   -1.3483   -0.5863    0.3426 C   0  0  0  0  0  0  0  0  0  0  0  0
   -0.0859   -1.0319   -0.4010 C   0  0  0  0  0  0  0  0  0  0  0  0
    1.2275   -0.5324    0.2076 C   0  0  0  0  0  0  0  0  0  0  0  0
    1.7454    0.7433   -0.4408 C   0  0  0  0  0  0  0  0  0  0  0  0
   -1.5569    1.3114   -0.6878 H   0  0  0  0  0  0  0  0  0  0  0  0
   -0.8513    1.4392    0.9410 H   0  0  0  0  0  0  0  0  0  0  0  0
   -2.5773    1.1363    0.7493 H   0  0  0  0  0  0  0  0  0  0  0  0
   -1.3102   -0.9381    1.3804 H   0  0  0  0  0  0  0  0  0  0  0  0
   -2.2105   -1.0799   -0.1224 H   0  0  0  0  0  0  0  0  0  0  0  0
   -0.0714   -2.1292   -0.3736 H   0  0  0  0  0  0  0  0  0  0  0  0
   -0.1540   -0.7530   -1.4593 H   0  0  0  0  0  0  0  0  0  0  0  0
    1.1272   -0.3910    1.2896 H   0  0  0  0  0  0  0  0  0  0  0  0
    1.9910   -1.3068    0.0623 H   0  0  0  0  0  0  0  0  0  0  0  0
    1.0553    1.5799   -0.3112 H   0  0  0  0  0  0  0  0  0  0  0  0
    1.9069    0.5975   -1.5138 H   0  0  0  0  0  0  0  0  0  0  0  0
    2.7033    1.0284    0.0062 H   0  0  0  0  0  0  0  0  0  0  0  0
  1  2  1  0
  2  3  1  0
  3  4  1  0
  4  5  1  0
  1  6  1  0
  1  7  1  0
  1  8  1  0
  2  9  1  0
  2 10  1  0
  3 11  1  0
  3 12  1  0
  4 13  1  0
  4 14  1  0
  5 15  1  0
  5 16  1  0
  5 17  1  0
M  END
>  <Energy>  (4) 
-1.5717219061085133

$$$$
