# opt freq 3-21g m062x

Title Card Required

0 1
 C                 -0.00271100    0.00000000   -0.01075700
 H                 -0.36708400    0.00000000    1.01666200
 H                  0.62156700    0.88941100   -0.15040200
 H                  0.62157400   -0.88940600   -0.15040000
 H                 -0.85979000   -0.00000400   -0.65131700

