%mem=60GB
%nprocshared=36
# wb97xd/def2svp opt=(maxcycles=100) freq=noraman

 pentane conformer 7

0  1
C           1.82320        -0.05490        -0.84690
C           0.93580        -0.93390         0.02040
C           0.08140        -0.14630         1.01670
C          -0.89450         0.85960         0.40160
C          -1.91730         0.22410        -0.52700
H           2.45290         0.59600        -0.23230
H           2.47970        -0.67690        -1.46390
H           1.23120         0.57100        -1.52110
H           1.57500        -1.62310         0.58550
H           0.30060        -1.55690        -0.61870
H           0.74470         0.39140         1.70570
H          -0.48370        -0.86050         1.62860
H          -0.34810         1.64220        -0.13610
H          -1.42960         1.36170         1.21680
H          -2.64500         0.97400        -0.85350
H          -1.44370        -0.18900        -1.42240
H          -2.46250        -0.57870        -0.02080

