%mem=60GB
%nprocshared=36
# wb97xd/def2svp opt=(maxcycles=100) freq=noraman

 pentane conformer 19

0  1
C          -1.59050         0.91270         0.33080
C          -1.34830        -0.58630         0.34260
C          -0.08590        -1.03190        -0.40100
C           1.22750        -0.53240         0.20760
C           1.74540         0.74330        -0.44080
H          -1.55690         1.31140        -0.68780
H          -0.85130         1.43920         0.94100
H          -2.57730         1.13630         0.74930
H          -1.31020        -0.93810         1.38040
H          -2.21050        -1.07990        -0.12240
H          -0.07140        -2.12920        -0.37360
H          -0.15400        -0.75300        -1.45930
H           1.12720        -0.39100         1.28960
H           1.99100        -1.30680         0.06230
H           1.05530         1.57990        -0.31120
H           1.90690         0.59750        -1.51380
H           2.70330         1.02840         0.00620

