%mem=60GB
%nprocshared=36
# wb97xd/def2svp opt=(maxcycles=100) freq=noraman

 pentane conformer 13

0  1
C          -2.34500        -0.37560        -0.41800
C          -0.93400         0.18480        -0.51300
C          -0.12470        -0.12660         0.74660
C           1.26840         0.50630         0.74390
C           2.18660        -0.05110        -0.33270
H          -2.88340         0.05780         0.43090
H          -2.90620        -0.14530        -1.32900
H          -2.32740        -1.46330        -0.29540
H          -0.44580        -0.24330        -1.39490
H          -0.98770         1.26930        -0.66310
H          -0.03490        -1.21280         0.87000
H          -0.66850         0.24640         1.62340
H           1.18460         1.59280         0.62540
H           1.73170         0.32930         1.72200
H           1.83050         0.20330        -1.33520
H           2.26420        -1.14030        -0.25810
H           3.19180         0.36830        -0.22260

