%mem=60GB
%nprocshared=36
# wb97xd/def2svp opt=(maxcycles=100) freq=noraman

 pentane conformer 15

0  1
C          -2.47030        -0.53980        -0.25110
C          -1.30440         0.43020        -0.14500
C           0.02950        -0.30750        -0.03260
C           1.19870         0.67120         0.07380
C           2.52780        -0.05870         0.18580
H          -2.52570        -1.18470         0.63170
H          -2.37190        -1.17620        -1.13630
H          -3.41400         0.00900        -0.33050
H          -1.29690         1.08110        -1.02700
H          -1.44980         1.07270         0.73120
H           0.01530        -0.96040         0.84870
H           0.16820        -0.95190        -0.90930
H           1.06700         1.31490         0.95120
H           1.21990         1.32340        -0.80700
H           3.34980         0.66010         0.26080
H           2.70530        -0.68740        -0.69250
H           2.55160        -0.69600         1.07550

