Au_linear conformer 14 720
     RDKit          3D

 14 13  0  0  0  0  0  0  0  0999 V2000
    8.9349   42.1134   22.3316 C   0  0  0  0  0  0  0  0  0  0  0  0
   10.0996   41.4888   21.5787 C   0  0  0  0  0  0  0  0  0  0  0  0
    9.4786   40.4516   20.2178 S   0  0  0  0  0  0  0  0  0  0  0  0
   11.7271   39.8094   19.4893 Au  0  0  0  0  0  2  0  0  0  0  0  0
   13.9892   39.1865   18.7862 S   0  0  0  0  0  0  0  0  0  0  0  0
   14.7804   40.1735   20.0900 C   0  0  0  0  0  0  0  0  0  0  0  0
    8.3343   42.7497   21.6474 H   0  0  0  0  0  0  0  0  0  0  0  0
    8.2861   41.3197   22.7593 H   0  0  0  0  0  0  0  0  0  0  0  0
    9.3215   42.7441   23.1596 H   0  0  0  0  0  0  0  0  0  0  0  0
   10.6968   40.8646   22.2771 H   0  0  0  0  0  0  0  0  0  0  0  0
   10.7450   42.2933   21.1663 H   0  0  0  0  0  0  0  0  0  0  0  0
   14.5060   41.2425   19.9736 H   0  0  0  0  0  0  0  0  0  0  0  0
   14.4577   39.8097   21.0876 H   0  0  0  0  0  0  0  0  0  0  0  0
   15.8818   40.0714   20.0064 H   0  0  0  0  0  0  0  0  0  0  0  0
  1  2  1  0
  2  3  1  0
  3  4  1  0
  4  5  1  0
  5  6  1  0
  1  7  1  0
  1  8  1  0
  1  9  1  0
  2 10  1  0
  2 11  1  0
  6 12  1  0
  6 13  1  0
  6 14  1  0
M  CHG  1   4  -3
M  END
>  <Energy>  (1) 
-0.05386561327720611

$$$$
Au_linear conformer 14 726
     RDKit          3D

 14 13  0  0  0  0  0  0  0  0999 V2000
    8.7840   42.3084   20.6801 C   0  0  0  0  0  0  0  0  0  0  0  0
   10.0618   41.6475   20.1861 C   0  0  0  0  0  0  0  0  0  0  0  0
   11.2588   41.5065   21.5502 S   0  0  0  0  0  0  0  0  0  0  0  0
   12.9558   40.4333   20.1470 Au  0  0  0  0  0  2  0  0  0  0  0  0
   14.6527   39.3600   18.7433 S   0  0  0  0  0  0  0  0  0  0  0  0
   15.8468   39.2196   20.1050 C   0  0  0  0  0  0  0  0  0  0  0  0
    8.3275   41.7007   21.4901 H   0  0  0  0  0  0  0  0  0  0  0  0
    9.0040   43.3269   21.0645 H   0  0  0  0  0  0  0  0  0  0  0  0
    8.0592   42.3908   19.8429 H   0  0  0  0  0  0  0  0  0  0  0  0
   10.5010   42.2599   19.3701 H   0  0  0  0  0  0  0  0  0  0  0  0
    9.8251   40.6350   19.7953 H   0  0  0  0  0  0  0  0  0  0  0  0
   16.0972   40.2286   20.4933 H   0  0  0  0  0  0  0  0  0  0  0  0
   15.4193   38.5991   20.9197 H   0  0  0  0  0  0  0  0  0  0  0  0
   16.7721   38.7364   19.7296 H   0  0  0  0  0  0  0  0  0  0  0  0
  1  2  1  0
  2  3  1  0
  3  4  1  0
  4  5  1  0
  5  6  1  0
  1  7  1  0
  1  8  1  0
  1  9  1  0
  2 10  1  0
  2 11  1  0
  6 12  1  0
  6 13  1  0
  6 14  1  0
M  CHG  1   4  -3
M  END
>  <Energy>  (2) 
0.07216170174469713

$$$$
Au_linear conformer 14 0
     RDKit          3D

 14 13  0  0  0  0  0  0  0  0999 V2000
   -1.2443    2.0925    1.8781 C   0  0  0  0  0  0  0  0  0  0  0  0
   -0.6503    1.1623    0.8283 C   0  0  0  0  0  0  0  0  0  0  0  0
    1.1232    1.5098    0.5840 S   0  0  0  0  0  0  0  0  0  0  0  0
    0.7625    3.4316   -0.8981 Au  0  0  0  0  0  2  0  0  0  0  0  0
    0.3468    5.3561   -2.3543 S   0  0  0  0  0  0  0  0  0  0  0  0
   -1.3298    5.6163   -1.7048 C   0  0  0  0  0  0  0  0  0  0  0  0
   -0.7004    1.9799    2.8399 H   0  0  0  0  0  0  0  0  0  0  0  0
   -1.1806    3.1487    1.5432 H   0  0  0  0  0  0  0  0  0  0  0  0
   -2.3124    1.8361    2.0399 H   0  0  0  0  0  0  0  0  0  0  0  0
   -1.2002    1.2659   -0.1309 H   0  0  0  0  0  0  0  0  0  0  0  0
   -0.7562    0.1130    1.1756 H   0  0  0  0  0  0  0  0  0  0  0  0
   -1.9508    4.7154   -1.8903 H   0  0  0  0  0  0  0  0  0  0  0  0
   -1.2851    5.8230   -0.6153 H   0  0  0  0  0  0  0  0  0  0  0  0
   -1.7892    6.4849   -2.2196 H   0  0  0  0  0  0  0  0  0  0  0  0
  1  2  1  0
  2  3  1  0
  3  4  1  0
  4  5  1  0
  5  6  1  0
  1  7  1  0
  1  8  1  0
  1  9  1  0
  2 10  1  0
  2 11  1  0
  6 12  1  0
  6 13  1  0
  6 14  1  0
M  CHG  1   4  -3
M  END
>  <Energy>  (3) 
0.6421481695520923

$$$$
