# a-Ar
%maxcore 4000
%pal nprocs 8 end
! Extrapolate(2/3,cc) def2/J cc-pVTZ/C DLPNO-CCSD(T) NormalPNO TightSCF RIJCOSX GridX7
%cpcm
smd true
SMDsolvent "CH2Cl2"
end
%method
Grid 3
FinalGrid 5
end
%scf maxiter 500
end
% mdci
Density None
end
% output
printlevel mini
print[ P_SCFInfo ] 1
print[ P_SCFIterInfo ] 1
print[ P_OrbEn ] 0
print[ P_Cartesian ] 0
end
% elprop
Dipole False
end
* xyz 0 1
 C  -2.41149400   0.00250800   0.00473800
 C  -0.90757400   0.00709700  -0.00594500
 C  -0.18963600   1.19821300  -0.00445100
 C   1.19952600   1.19528800   0.00098400
 C   1.89320200  -0.00505500   0.00432500
 C   1.18784100  -1.20191500   0.00102100
 C  -0.19815400  -1.19272400  -0.00454100
 H  -2.79143800  -0.34764400   0.96662100
 H  -2.81066000   1.00063800  -0.17026800
 H  -2.80689300  -0.66289700  -0.76384600
 H  -0.72483100   2.14059600  -0.00906000
 H   1.73895400   2.13387500   0.00092600
 H   2.97533600  -0.01012500   0.00713600
 H   1.72000900  -2.14465800   0.00094100
 H  -0.74274100  -2.13025800  -0.00924500
*