%nprocshared=8
%mem=16GB
# wb97xd/def2qzvpp scrf=(smd,solvent=acetonitrile)

a-Int-III-B

0 1
 C   0.10232900   1.26182600   0.00009700
 C   1.44089000   1.23222000   0.00009200
 C   2.19633000  -0.02237700  -0.00004800
 C   1.53406400  -1.17873000  -0.00009700
 C   0.03839300  -1.27471200   0.00005900
 C  -0.70615400   0.04921100   0.00001000
 C  -2.05253400   0.05076900  -0.00002100
 C  -2.80381700  -1.25304300   0.00005800
 C  -2.92083800   1.27454200  -0.00012100
 H   2.00083000   2.16072400   0.00018800
 H   2.08251600  -2.11504300  -0.00013600
 H  -0.27611600  -1.87212700   0.86580700
 H  -0.27628200  -1.87227700  -0.86551600
 H  -2.55455500  -1.85897500  -0.87632000
 H  -2.55430900  -1.85900000   0.87634700
 H  -3.88072400  -1.09022200   0.00020400
 H  -3.57523300   1.26799100   0.87627100
 H  -3.57559300   1.26748500  -0.87624700
 H  -2.37074700   2.21034100  -0.00054200
 H  -0.39661000   2.22051000   0.00021300
 C   3.69327000   0.06678000  -0.00004800
 H   4.04737300   0.61176200  -0.87846700
 H   4.04739100   0.61153700   0.87850100
 H   4.15044900  -0.92161900  -0.00018400

