%nprocshared=8
%mem=16GB
# b3lyp/6-31G*

a-Int-III

0 1
 C   0.08733800  -1.34173400   0.72331100
 C  -1.17317500  -0.95062200   0.89805700
 C  -1.81735200   0.02060700  -0.00148700
 C  -1.21544000   0.33613400  -1.14809700
 C   0.07625300  -0.30835200  -1.56952900
 C   0.94485500  -0.79573800  -0.39505200
 C   1.87227000   0.27606400   0.15127200
 C   3.17833900   0.05300800   0.24879500
 C   1.25384100   1.57515400   0.58005200
 H  -1.75150400  -1.32744000   1.73510300
 H  -1.68177700   1.03950900  -1.83005900
 H   0.65974600   0.37419900  -2.19181100
 H  -0.16426700  -1.16815600  -2.20602600
 H   3.61772200  -0.88472900  -0.06976300
 H   3.85016400   0.80221100   0.64987900
 H   0.81611400   2.09702000  -0.27404300
 H   1.99634900   2.22581500   1.03978600
 H   0.44429100   1.40159700   1.29198500
 H   0.55832000  -2.02368600   1.42187100
 C  -3.12747400   0.60461100   0.43361900
 H  -3.86854800  -0.18344100   0.58916700
 H  -3.01969300   1.13283700   1.38443300
 H  -3.51633500   1.30244400  -0.30648900
 H   1.58268500  -1.60296800  -0.75968000

