%nprocshared=8
%mem=16GB
# wb97xd/def2qzvpp scrf=(smd,solvent=acetonitrile)

a-Int-IV

0 1
 C   2.45213000  -0.03526700  -0.00004300
 C   0.94869000  -0.02626900  -0.00000900
 C   0.27249700   1.22602200   0.00006900
 C  -1.13762900   1.27655000   0.00000700
 C  -1.88650300   0.14583100  -0.00004200
 C  -1.26161200  -1.20941200   0.00006000
 C   0.23218100  -1.17683500  -0.00005400
 H   2.84233600  -1.05189900  -0.00034700
 H   2.84150400   0.48212600  -0.87898700
 H   2.84153800   0.48160400   0.87919300
 H   0.84865100   2.14204000   0.00013300
 H  -1.62856000   2.24223000  -0.00003100
 H  -2.96748300   0.20579600  -0.00012300
 H  -1.62358500  -1.78835100  -0.86387100
 H  -1.62341800  -1.78809200   0.86424900
 H   0.75050000  -2.12918000  -0.00014300

