%nprocshared=8
%mem=16GB
# wb97xd/def2qzvpp scrf=(smd,solvent=acetonitrile)

a-Int-IV-B

0 1
 C   0.07770500   1.20177200  -0.00532300
 C   1.45745900   1.19307100  -0.01120000
 C   2.18059600  -0.00050700  -0.01139200
 C   1.45742100  -1.19367900  -0.01106500
 C   0.07737500  -1.20205700  -0.00521300
 C  -0.66723600  -0.00017200  -0.00055200
 C  -2.09129500   0.00012100   0.00357000
 C  -2.84463300  -1.29138500   0.00528300
 C  -2.84412800   1.29190200   0.00545100
 H   1.99385400   2.13543100  -0.01817200
 H   1.99343700  -2.13620800  -0.01797800
 H  -2.60814300  -1.89908600  -0.87470800
 H  -2.59694200  -1.90321000   0.87923700
 H  -3.91954600  -1.12144900   0.01242000
 H  -2.59654000   1.90334800   0.87970400
 H  -3.91911500   1.12236800   0.01216800
 H  -2.60718100   1.89985000  -0.87424300
 H  -0.43944200   2.15200100  -0.00841500
 C   3.68229300   0.00035100   0.01779000
 H   4.08660300   0.87269300  -0.49591900
 H   4.05266300   0.02415400   1.04589800
 H   4.08685300  -0.89415400  -0.45578800
 H  -0.43984900  -2.15223900  -0.00829600

