%nprocshared=8
%mem=16GB
# b3lyp/6-31G*

a-pinene

0 1
 C  -2.55726100  -1.26484800  -0.12988900
 C  -1.43502000  -0.27825900  -0.08583400
 C  -1.49960400   0.91572500   0.49727100
 C  -0.28147000   1.80630700   0.51690800
 C   0.86913400   1.15024000  -0.25188000
 C   1.07389900  -0.32606600   0.20738400
 C   2.38635500  -0.90983300  -0.30784300
 C   0.95370400  -0.65551800   1.68608000
 C  -0.12444400  -0.64289100  -0.75064300
 C   0.31641100   0.58997600  -1.58342800
 H  -3.44911500  -0.87930500   0.36311100
 H  -2.81093700  -1.51808500  -1.16284100
 H  -2.26446900  -2.19768900   0.36054200
 H  -2.40797100   1.25589400   0.98316800
 H  -0.51525000   2.77922500   0.07280000
 H   0.01802800   2.00758900   1.55154100
 H   1.75379500   1.78897400  -0.28322000
 H   3.22695800  -0.48899600   0.24915300
 H   2.39993600  -1.99230400  -0.16054500
 H   2.55841600  -0.71581300  -1.36503900
 H   1.00447500  -1.73696700   1.83643500
 H   1.78724700  -0.20954300   2.23508300
 H   0.02531200  -0.29931500   2.12686800
 H  -0.15021300  -1.62473800  -1.22611600
 H  -0.48222200   1.15403400  -2.06344000
 H   1.09578600   0.36804000  -2.30626300

