%nprocshared=8
%mem=16GB
# wb97xd/def2qzvpp scrf=(smd,solvent=acetonitrile)

b-Int-V-B

-1 2
 C   0.15662200   1.25321300   0.25932900
 C   1.49197200   1.23821900   0.19977300
 C   2.23567900   0.00151800  -0.02578000
 C   1.47131400  -1.27300200   0.23236700
 C  -0.01282100  -1.14673100   0.05745900
 C  -0.64859200   0.03326100   0.08386100
 C  -2.11855600   0.12734400  -0.06362900
 C  -2.89925400  -1.15866800  -0.07225300
 C  -2.75449300   1.29095800  -0.20448300
 H   2.05500400   2.16102800   0.27779400
 H   1.86378100  -2.08369300  -0.38386600
 H  -2.61715300  -1.78189600  -0.92356700
 H  -2.71139600  -1.73895500   0.83319900
 H  -3.96613300  -0.95673000  -0.13961000
 H  -0.35099800   2.19285900   0.42372600
 C   3.51316800   0.01024700  -0.40549400
 H  -0.56771300  -2.06961100  -0.05018400
 H  -3.83089300   1.31782900  -0.31410000
 H  -2.24536600   2.24307200  -0.23240900
 H   4.05274800   0.94124100  -0.52662700
 H   4.05259000  -0.90737200  -0.60451500
 H   1.65529900  -1.57592800   1.27325400

