%nprocshared=8
%mem=16GB
# wb97xd/genecp scrf=(smd,solvent=acetonitrile)

b-Int-I-T1

0 1
 C  -0.16055600   0.92469500   1.38225700
 C  -1.41391000   0.98641200   0.56930200
 C  -1.85910700  -0.02549600  -0.26142200
 C  -1.02786100  -1.28309400  -0.41681300
 C  -0.02306200  -1.46733600   0.71496000
 C   0.79869000  -0.18239400   0.93382800
 C   1.61868000   0.15766700  -0.28278700
 C   2.82355500  -0.68242200  -0.54849200
 C   1.56062200   1.49763100  -0.93425200
 H  -2.03344900   1.87120700   0.67236600
 H  -1.69242900  -2.14677700  -0.47923600
 H   0.63468200  -2.30940900   0.49359000
 H  -0.55015800  -1.70742600   1.64333700
 H   1.49506700  -0.37576500   1.76190400
 H   2.70481900  -1.70170900  -0.17810600
 H   3.05423400  -0.73240700  -1.61517300
 H   3.71340900  -0.26465400  -0.05415300
 H   0.54103400   1.87997600  -1.00700400
 H   1.97868100   1.45287400  -1.94184100
 H   2.14904000   2.24810100  -0.38423000
 H   0.33913500   1.89738700   1.37097400
 C  -3.04482400   0.08987400  -0.96444600
 H  -0.42879300   0.74942600   2.43225700
 H  -0.49167100  -1.23016200  -1.36939600
 H  -3.64994400   0.98363800  -0.89371600
 H  -3.39701900  -0.70751300  -1.60437600

H 0
6-31G*
****
C 0
def2svp
****

C 0
def2svp
****

