%nprocshared=8
%mem=16GB
# wb97xd/genecp scrf=(smd,solvent=acetonitrile)

b-Int-V

0 1
 C   2.34120500   0.01217000  -0.19220500
 C   1.02642100   0.01226000   0.03107500
 C   0.27182000   1.26122700   0.12468500
 C  -1.06424300   1.27607400   0.04449300
 C  -1.82412600   0.04200700  -0.14874900
 C  -1.22118300  -1.14408800  -0.09490600
 C   0.24157200  -1.26668300   0.22290300
 H   2.89412600   0.94003300  -0.26866200
 H   0.83325400   2.18470800   0.20466200
 H  -1.60118900   2.21549400   0.08111000
 H  -2.88750700   0.11159500  -0.33901400
 H  -1.78648700  -2.05842900  -0.22886000
 H   0.32361000  -1.56347200   1.27779800
 H   2.89846600  -0.90968700  -0.30341800
 H   0.69692900  -2.07805000  -0.34739300

H 0
6-31G*
****
C 0
def2svp
****

C 0
def2svp
****

