%nprocshared=8
%mem=16GB
# wb97xd/def2qzvpp scrf=(smd,solvent=acetonitrile)

b-Int-IV

0 1
 C  -2.38145300   0.00779200  -0.16182800
 C  -1.04799200   0.04563800   0.03560000
 C  -0.30990600   1.26855700   0.01807200
 C   1.09626400   1.27548100   0.08666500
 C   1.82260200   0.12890300  -0.03504400
 C   1.13504300  -1.17912800  -0.28064200
 C  -0.25306300  -1.19916700   0.35894500
 H  -0.85311400   2.20267100  -0.04796800
 H   1.60920500   2.22420600   0.18918000
 H   2.90428100   0.16346500  -0.02432400
 H   1.73506600  -2.00877300   0.09576700
 H   1.04395800  -1.33003400  -1.36454500
 H  -0.12883400  -1.23755000   1.44642500
 H  -0.80647400  -2.09040400   0.06316300
 H  -2.92872600  -0.92548300  -0.13904400
 H  -2.94432900   0.91344700  -0.34925100

