# MeOH_G09
%maxcore 4000
%pal nprocs 8 end
! Extrapolate(2/3,cc) def2/J cc-pVTZ/C DLPNO-CCSD(T) NormalPNO TightSCF RIJCOSX GridX7
%cpcm
smd true
SMDsolvent "CH2Cl2"
end
%method
Grid 3
FinalGrid 5
end
%scf maxiter 500
end
% mdci
Density None
end
% output
printlevel mini
print[ P_SCFInfo ] 1
print[ P_SCFIterInfo ] 1
print[ P_OrbEn ] 0
print[ P_Cartesian ] 0
end
% elprop
Dipole False
end
* xyz 0 1
 C   0.65978700  -0.01959100   0.00000000
 H   1.08588800   0.98380100   0.00000100
 H   1.02538400  -0.54453500  -0.88940900
 H   1.02538400  -0.54453700   0.88940800
 O  -0.74538700   0.12221100   0.00000000
 H  -1.13228700  -0.75487100   0.00000000
*