# Propylene
%maxcore 4000
%pal nprocs 8 end
! Extrapolate(2/3,cc) def2/J cc-pVTZ/C DLPNO-CCSD(T) NormalPNO TightSCF RIJCOSX GridX7
%cpcm
smd true
SMDsolvent "CH2Cl2"
end
%method
Grid 3
FinalGrid 5
end
%scf maxiter 500
end
% mdci
Density None
end
% output
printlevel mini
print[ P_SCFInfo ] 1
print[ P_SCFIterInfo ] 1
print[ P_OrbEn ] 0
print[ P_Cartesian ] 0
end
% elprop
Dipole False
end
* xyz 0 1
 C   1.27223700  -0.22150700   0.00003300
 C   0.13453900   0.45600500   0.00004600
 C  -1.22730200  -0.16247900  -0.00000800
 H   1.28140000  -1.30580800  -0.00008900
 H   2.23116800   0.27976900  -0.00012200
 H  -1.79725800   0.15134600   0.87717400
 H  -1.79696300   0.15106500  -0.87745800
 H  -1.16508600  -1.25041000   0.00017000
 H   0.16989700   1.54192500  -0.00010700
*