%mem=60GB
%nprocshared=36
# wb97xd/def2svp opt=(maxcycles=100) freq=noraman empiricaldispersion=GD3BJ

 CH4

0 1
 C  -0.00200000  -0.01400000   0.02000000
 H   0.65133100   0.70733100   0.53933100
 H  -0.68733100  -0.63133100   0.59933100
 H  -0.56133100   0.63933100  -0.67133100
 H   0.62533100  -0.54733100  -0.71533100

