%mem=60GB
%nprocshared=36
# wb97xd/def2svp opt=(maxcycles=100) freq=noraman empiricaldispersion=GD3BJ

 CH4

0 1
 C   0.00000000   0.00000000   0.00000000
 H   0.63133100   0.63133100   0.63133100
 H  -0.63133100  -0.63133100   0.63133100
 H  -0.63133100   0.63133100  -0.63133100
 H   0.63133100  -0.63133100  -0.63133100

