%mem=60GB
%nprocshared=36
# wb97xd/def2svp freq=noraman opt=(maxcycles=100)

 pentane conformer 12

0 1
C          -2.50530        -0.34960        -0.10470
C          -1.20300        -0.34140        -0.88920
C          -0.02270         0.07300        -0.01110
C           1.28430         0.07990        -0.80350
C           2.46120         0.49170         0.06650
H          -2.72800         0.64440         0.29630
H          -2.45530        -1.05440         0.73140
H          -3.33580        -0.64870        -0.75180
H          -1.02650        -1.34100        -1.30320
H          -1.29770         0.34840        -1.73590
H           0.06510        -0.61760         0.83660
H          -0.20610         1.07160         0.40400
H           1.20320         0.77210        -1.64970
H           1.47450        -0.91740        -1.21700
H           2.31710         1.49900         0.47020
H           3.38520         0.48980        -0.52020
H           2.58990        -0.19980         0.90530

