# opt freq=noraman b3lyp/3-21g

CH4

0 1
 C                 -0.68231600    0.01942200    0.00115500
 H                 -1.08847300   -0.93585900   -0.34348600
 H                 -1.08696500    0.22381400    1.00464700
 H                 -1.04798700    0.80281000   -0.68030200
 O                  0.77017600   -0.12478700    0.00135800
 H                  1.15591500    0.79100300    0.00134700

