Ir_2 5
     RDKit          3D

 61 69  0  0  0  0  0  0  0  0999 V2000
    1.1187    1.5952   -0.7512 C   0  0  0  0  0  0  0  0  0  0  0  0
    0.8185    2.8362   -0.1962 C   0  0  0  0  0  0  0  0  0  0  0  0
   -0.2451    2.8162    0.8213 C   0  0  0  0  0  0  0  0  0  0  0  0
   -0.6991    3.9547    1.5081 C   0  0  0  0  0  0  0  0  0  0  0  0
   -1.7094    3.8155    2.4617 C   0  0  0  0  0  0  0  0  0  0  0  0
   -2.2532    2.5574    2.7232 C   0  0  0  0  0  0  0  0  0  0  0  0
   -1.7785    1.4477    2.0227 C   0  0  0  0  0  0  0  0  0  0  0  0
   -0.7949    1.5996    1.0927 N   0  0  0  0  0  4  0  0  0  0  0  0
   -0.0225   -0.0099   -0.0038 Ir  0  0  0  0  0  6  0  0  0  0  0  0
   -1.6823    0.1855   -1.2622 N   0  0  0  0  0  4  0  0  0  0  0  0
   -2.7032   -0.6727   -0.9967 C   0  0  0  0  0  0  0  0  0  0  0  0
   -2.4829   -1.6041    0.1223 C   0  0  0  0  0  0  0  0  0  0  0  0
   -3.4126   -2.5669    0.5512 C   0  0  0  0  0  0  0  0  0  0  0  0
   -3.0885   -3.3900    1.6318 C   0  0  0  0  0  0  0  0  0  0  0  0
   -1.8560   -3.2496    2.2709 C   0  0  0  0  0  0  0  0  0  0  0  0
   -0.9571   -2.2828    1.8181 C   0  0  0  0  0  0  0  0  0  0  0  0
   -1.2881   -1.4896    0.7613 N   0  0  0  0  0  4  0  0  0  0  0  0
   -3.8699   -0.6303   -1.7791 C   0  0  0  0  0  0  0  0  0  0  0  0
   -3.9567    0.2970   -2.8196 C   0  0  0  0  0  0  0  0  0  0  0  0
   -2.8932    1.1646   -3.0716 C   0  0  0  0  0  0  0  0  0  0  0  0
   -1.7498    1.0945   -2.2745 C   0  0  0  0  0  0  0  0  0  0  0  0
    0.9449   -1.5337   -1.0674 N   0  0  0  0  0  4  0  0  0  0  0  0
    0.4651   -2.0243   -2.2441 C   0  0  0  0  0  0  0  0  0  0  0  0
    1.1537   -3.0402   -2.9085 C   0  0  0  0  0  0  0  0  0  0  0  0
    2.3328   -3.5418   -2.3565 C   0  0  0  0  0  0  0  0  0  0  0  0
    2.8140   -3.0262   -1.1515 C   0  0  0  0  0  0  0  0  0  0  0  0
    2.0954   -2.0039   -0.5093 C   0  0  0  0  0  0  0  0  0  0  0  0
    2.5071   -1.3761    0.7569 C   0  0  0  0  0  0  0  0  0  0  0  0
    1.6530   -0.3783    1.2185 C   0  0  0  0  0  0  0  0  0  0  0  0
    1.9182    0.2949    2.4149 C   0  0  0  0  0  0  0  0  0  0  0  0
    3.0598   -0.0343    3.1519 C   0  0  0  0  0  0  0  0  0  0  0  0
    3.9269   -1.0333    2.6937 C   0  0  0  0  0  0  0  0  0  0  0  0
    3.6553   -1.7084    1.4972 C   0  0  0  0  0  0  0  0  0  0  0  0
    1.5163    3.9789   -0.6253 C   0  0  0  0  0  0  0  0  0  0  0  0
    2.5053    3.8572   -1.6092 C   0  0  0  0  0  0  0  0  0  0  0  0
    2.7971    2.6056   -2.1645 C   0  0  0  0  0  0  0  0  0  0  0  0
    2.1022    1.4702   -1.7371 C   0  0  0  0  0  0  0  0  0  0  0  0
   -0.2890    4.9363    1.3220 H   0  0  0  0  0  0  0  0  0  0  0  0
   -2.0698    4.6828    2.9996 H   0  0  0  0  0  0  0  0  0  0  0  0
   -3.0349    2.4430    3.4629 H   0  0  0  0  0  0  0  0  0  0  0  0
   -2.1972    0.4734    2.2283 H   0  0  0  0  0  0  0  0  0  0  0  0
   -4.3722   -2.6910    0.0720 H   0  0  0  0  0  0  0  0  0  0  0  0
   -3.7935   -4.1363    1.9747 H   0  0  0  0  0  0  0  0  0  0  0  0
   -1.6000   -3.8834    3.1099 H   0  0  0  0  0  0  0  0  0  0  0  0
   -0.0046   -2.1717    2.3153 H   0  0  0  0  0  0  0  0  0  0  0  0
   -4.7035   -1.2934   -1.6023 H   0  0  0  0  0  0  0  0  0  0  0  0
   -4.8482    0.3424   -3.4317 H   0  0  0  0  0  0  0  0  0  0  0  0
   -2.9540    1.8842   -3.8777 H   0  0  0  0  0  0  0  0  0  0  0  0
   -0.9251    1.7636   -2.4720 H   0  0  0  0  0  0  0  0  0  0  0  0
   -0.4457   -1.6337   -2.6739 H   0  0  0  0  0  0  0  0  0  0  0  0
    0.7771   -3.4343   -3.8435 H   0  0  0  0  0  0  0  0  0  0  0  0
    2.8751   -4.3294   -2.8636 H   0  0  0  0  0  0  0  0  0  0  0  0
    3.7299   -3.4257   -0.7418 H   0  0  0  0  0  0  0  0  0  0  0  0
    1.2492    1.0641    2.7743 H   0  0  0  0  0  0  0  0  0  0  0  0
    3.2725    0.4831    4.0784 H   0  0  0  0  0  0  0  0  0  0  0  0
    4.8094   -1.2856    3.2673 H   0  0  0  0  0  0  0  0  0  0  0  0
    4.3397   -2.4765    1.1683 H   0  0  0  0  0  0  0  0  0  0  0  0
    1.3098    4.9567   -0.2158 H   0  0  0  0  0  0  0  0  0  0  0  0
    3.0451    4.7340   -1.9431 H   0  0  0  0  0  0  0  0  0  0  0  0
    3.5606    2.5168   -2.9264 H   0  0  0  0  0  0  0  0  0  0  0  0
    2.3278    0.5063   -2.1713 H   0  0  0  0  0  0  0  0  0  0  0  0
  1  2  2  0
  2  3  1  0
  3  4  2  0
  4  5  1  0
  5  6  2  0
  6  7  1  0
  7  8  2  0
  8  9  1  0
  9 10  1  0
 10 11  2  0
 11 12  1  0
 12 13  2  0
 13 14  1  0
 14 15  2  0
 15 16  1  0
 16 17  2  0
 11 18  1  0
 18 19  2  0
 19 20  1  0
 20 21  2  0
  9 22  1  0
 22 23  2  0
 23 24  1  0
 24 25  2  0
 25 26  1  0
 26 27  2  0
 27 28  1  0
 28 29  2  0
 29 30  1  0
 30 31  2  0
 31 32  1  0
 32 33  2  0
  2 34  1  0
 34 35  2  0
 35 36  1  0
 36 37  2  0
 37  1  1  0
  9  1  1  0
  8  3  1  0
 29  9  1  0
 17  9  1  0
 21 10  1  0
 17 12  1  0
 27 22  1  0
 33 28  1  0
  4 38  1  0
  5 39  1  0
  6 40  1  0
  7 41  1  0
 13 42  1  0
 14 43  1  0
 15 44  1  0
 16 45  1  0
 18 46  1  0
 19 47  1  0
 20 48  1  0
 21 49  1  0
 23 50  1  0
 24 51  1  0
 25 52  1  0
 26 53  1  0
 30 54  1  0
 31 55  1  0
 32 56  1  0
 33 57  1  0
 34 58  1  0
 35 59  1  0
 36 60  1  0
 37 61  1  0
M  CHG  5   8   1   9   1  10   1  17   1  22   1
M  END
>  <Real charge>  (1)   
1
>  <Energy>  (1) 
69.6012659527347

$$$$
