Ir_3 5
     RDKit          3D

 63 69  0  0  0  0  0  0  0  0999 V2000
   -1.1715    1.6304   -2.9360 C   0  0  0  0  0  0  0  0  0  0  0  0
   -1.1170    1.9879   -1.1559 P   0  0  0  0  0  4  0  0  0  0  0  0
   -2.8190    2.2999   -0.6050 C   0  0  0  0  0  0  0  0  0  0  0  0
   -0.1707    3.4692   -0.8184 C   0  0  0  0  0  0  0  0  0  0  0  0
    0.5913    3.5324    0.2735 C   0  0  0  0  0  0  0  0  0  0  0  0
    0.6670    2.1379    1.3971 P   0  0  0  0  0  4  0  0  0  0  0  0
   -0.3473    2.5631    2.8378 C   0  0  0  0  0  0  0  0  0  0  0  0
    2.3732    1.9722    1.9999 C   0  0  0  0  0  0  0  0  0  0  0  0
   -0.0289    0.1736    0.0772 Ir  0  0  0  0  0  6  0  0  0  0  0  0
   -0.5823   -1.2645   -1.3654 N   0  0  0  0  0  4  0  0  0  0  0  0
    0.2395   -1.6222   -2.3952 C   0  0  0  0  0  0  0  0  0  0  0  0
   -0.1867   -2.5468   -3.3488 C   0  0  0  0  0  0  0  0  0  0  0  0
   -1.4610   -3.0987   -3.2440 C   0  0  0  0  0  0  0  0  0  0  0  0
   -2.2948   -2.7246   -2.1914 C   0  0  0  0  0  0  0  0  0  0  0  0
   -1.8330   -1.7905   -1.2468 C   0  0  0  0  0  0  0  0  0  0  0  0
   -2.6185   -1.3398   -0.0945 C   0  0  0  0  0  0  0  0  0  0  0  0
   -1.9705   -0.4257    0.7337 C   0  0  0  0  0  0  0  0  0  0  0  0
   -2.5802   -0.0118    1.9234 C   0  0  0  0  0  0  0  0  0  0  0  0
   -3.8633   -0.4596    2.2478 C   0  0  0  0  0  0  0  0  0  0  0  0
   -4.5330   -1.3400    1.3951 C   0  0  0  0  0  0  0  0  0  0  0  0
   -3.9117   -1.7920    0.2277 C   0  0  0  0  0  0  0  0  0  0  0  0
    0.9696   -1.3087    1.2164 C   0  0  0  0  0  0  0  0  0  0  0  0
    2.3151   -1.4877    0.9074 C   0  0  0  0  0  0  0  0  0  0  0  0
    3.0708   -2.4544    1.5960 C   0  0  0  0  0  0  0  0  0  0  0  0
    2.4648   -3.2299    2.5898 C   0  0  0  0  0  0  0  0  0  0  0  0
    1.1150   -3.0422    2.9012 C   0  0  0  0  0  0  0  0  0  0  0  0
    0.3652   -2.0814    2.2170 C   0  0  0  0  0  0  0  0  0  0  0  0
    2.8358   -0.5888   -0.1308 C   0  0  0  0  0  0  0  0  0  0  0  0
    4.1708   -0.5968   -0.5722 C   0  0  0  0  0  0  0  0  0  0  0  0
    4.5729    0.3182   -1.5441 C   0  0  0  0  0  0  0  0  0  0  0  0
    3.6541    1.2266   -2.0641 C   0  0  0  0  0  0  0  0  0  0  0  0
    2.3369    1.2064   -1.6059 C   0  0  0  0  0  0  0  0  0  0  0  0
    1.9509    0.3077   -0.6541 N   0  0  0  0  0  4  0  0  0  0  0  0
   -1.5626    2.5155   -3.4781 H   0  0  0  0  0  0  0  0  0  0  0  0
   -1.8438    0.7665   -3.1155 H   0  0  0  0  0  0  0  0  0  0  0  0
   -0.1613    1.3837   -3.3156 H   0  0  0  0  0  0  0  0  0  0  0  0
   -2.8287    2.5046    0.4842 H   0  0  0  0  0  0  0  0  0  0  0  0
   -3.2225    3.1817   -1.1434 H   0  0  0  0  0  0  0  0  0  0  0  0
   -3.4549    1.4195   -0.8287 H   0  0  0  0  0  0  0  0  0  0  0  0
   -0.2603    4.3283   -1.4747 H   0  0  0  0  0  0  0  0  0  0  0  0
    1.1268    4.4450    0.5129 H   0  0  0  0  0  0  0  0  0  0  0  0
    0.0717    3.4699    3.3202 H   0  0  0  0  0  0  0  0  0  0  0  0
   -1.3842    2.7874    2.5169 H   0  0  0  0  0  0  0  0  0  0  0  0
   -0.3238    1.7313    3.5708 H   0  0  0  0  0  0  0  0  0  0  0  0
    3.0817    1.9623    1.1483 H   0  0  0  0  0  0  0  0  0  0  0  0
    2.6181    2.8355    2.6518 H   0  0  0  0  0  0  0  0  0  0  0  0
    2.4715    1.0346    2.5839 H   0  0  0  0  0  0  0  0  0  0  0  0
    1.2230   -1.1950   -2.4993 H   0  0  0  0  0  0  0  0  0  0  0  0
    0.4651   -2.8292   -4.1654 H   0  0  0  0  0  0  0  0  0  0  0  0
   -1.8030   -3.8159   -3.9790 H   0  0  0  0  0  0  0  0  0  0  0  0
   -3.2783   -3.1655   -2.1301 H   0  0  0  0  0  0  0  0  0  0  0  0
   -2.0666    0.6259    2.6114 H   0  0  0  0  0  0  0  0  0  0  0  0
   -4.3346   -0.1322    3.1655 H   0  0  0  0  0  0  0  0  0  0  0  0
   -5.5261   -1.6876    1.6491 H   0  0  0  0  0  0  0  0  0  0  0  0
   -4.4434   -2.4924   -0.3986 H   0  0  0  0  0  0  0  0  0  0  0  0
    4.1167   -2.6170    1.3835 H   0  0  0  0  0  0  0  0  0  0  0  0
    3.0429   -3.9741    3.1222 H   0  0  0  0  0  0  0  0  0  0  0  0
    0.6502   -3.6414    3.6734 H   0  0  0  0  0  0  0  0  0  0  0  0
   -0.6741   -1.9496    2.4731 H   0  0  0  0  0  0  0  0  0  0  0  0
    4.9008   -1.2889   -0.1803 H   0  0  0  0  0  0  0  0  0  0  0  0
    5.5976    0.3246   -1.8927 H   0  0  0  0  0  0  0  0  0  0  0  0
    3.9592    1.9409   -2.8178 H   0  0  0  0  0  0  0  0  0  0  0  0
    1.6394    1.9125   -2.0166 H   0  0  0  0  0  0  0  0  0  0  0  0
  1  2  1  0
  2  3  1  0
  2  4  1  0
  4  5  2  0
  5  6  1  0
  6  7  1  0
  6  8  1  0
  2  9  1  0
  9 10  1  0
 10 11  2  0
 11 12  1  0
 12 13  2  0
 13 14  1  0
 14 15  2  0
 15 16  1  0
 16 17  2  0
 17 18  1  0
 18 19  2  0
 19 20  1  0
 20 21  2  0
  9 22  1  0
 22 23  1  0
 23 24  2  0
 24 25  1  0
 25 26  2  0
 26 27  1  0
 23 28  1  0
 28 29  2  0
 29 30  1  0
 30 31  2  0
 31 32  1  0
 32 33  2  0
  9  6  1  0
 33  9  1  0
 17  9  1  0
 15 10  1  0
 21 16  1  0
 27 22  2  0
 33 28  1  0
  1 34  1  0
  1 35  1  0
  1 36  1  0
  3 37  1  0
  3 38  1  0
  3 39  1  0
  4 40  1  0
  5 41  1  0
  7 42  1  0
  7 43  1  0
  7 44  1  0
  8 45  1  0
  8 46  1  0
  8 47  1  0
 11 48  1  0
 12 49  1  0
 13 50  1  0
 14 51  1  0
 18 52  1  0
 19 53  1  0
 20 54  1  0
 21 55  1  0
 24 56  1  0
 25 57  1  0
 26 58  1  0
 27 59  1  0
 29 60  1  0
 30 61  1  0
 31 62  1  0
 32 63  1  0
M  CHG  5   2   1   6   1   9   1  10   1  33   1
M  END
>  <Real charge>  (1)   
1
>  <Energy>  (1) 
48.28080989080838

$$$$
