%mem=60GB
%nprocshared=36
# wb97xd/def2svp opt=(maxcycles=100) freq=noraman

 pentane conformer 110

0  1
C           1.85760         0.16980        -0.75030
C           0.95610         0.85300         0.26600
C           0.03650        -0.11420         1.01540
C          -0.93760        -0.91090         0.14410
C          -1.89970        -0.03780        -0.64600
H           2.55790         0.89440        -1.17800
H           2.44100        -0.63000        -0.28340
H           1.27990        -0.25810        -1.57490
H           1.58760         1.36620         1.00140
H           0.36760         1.63160        -0.23140
H          -0.53620         0.45690         1.75700
H           0.65300        -0.82280         1.58250
H          -0.38880        -1.56510        -0.54210
H          -1.52250        -1.57010         0.79710
H          -2.63200        -0.66260        -1.16740
H          -2.44530         0.64350         0.01450
H          -1.37510         0.55610        -1.40020

