%mem=60GB
%nprocshared=36
# wb97xd/gen freq=noraman opt=(maxcycles=100) scrf=(SMD,solvent=Chloroform)

 Au_linear conformer 14 0

-1 1
C          -1.24430         2.09250         1.87810
C          -0.65030         1.16230         0.82830
S           1.12320         1.50980         0.58400
Au          0.76250         3.43160        -0.89810
S           0.34680         5.35610        -2.35430
C          -1.32980         5.61630        -1.70480
H          -0.70040         1.97990         2.83990
H          -1.18060         3.14870         1.54320
H          -2.31240         1.83610         2.03990
H          -1.20020         1.26590        -0.13090
H          -0.75620         0.11300         1.17560
H          -1.95080         4.71540        -1.89030
H          -1.28510         5.82300        -0.61530
H          -1.78920         6.48490        -2.21960

 C S H 0
def2svp
****
Au 0
LANL2DZ
****

