%mem=60GB
%nprocshared=36
# wb97xd/gen freq=noraman opt=(maxcycles=100) scrf=(SMD,solvent=Chloroform)

 Au_linear conformer 527

-1 1
C           0.76190         2.58300         1.65960
C           0.73550         1.14600         1.16140
S           0.63900         1.12150        -0.65870
Au          0.63200        -1.11860        -0.79070
S           0.63910        -3.28180        -0.65710
C           0.73540        -3.31120         1.16030
H          -0.16200         3.11370         1.34580
H           1.64750         3.11370         1.24990
H           0.82070         2.59230         2.76840
H           1.66040         0.62820         1.49520
H          -0.14890         0.62820         1.59110
H           1.66440        -2.81070         1.50610
H           0.75360        -4.36640         1.50170
H          -0.15170        -2.81070         1.60240

 C S H 0
def2svp
****
Au 0
LANL2DZ
****

