%mem=60GB
%nprocshared=36
# wb97xd/gen freq=noraman opt=(maxcycles=100) scrf=(SMD,solvent=Chloroform)

 Au_linear conformer 175

-1 1
C           2.24250         1.05470         1.59270
C           2.32210         1.23350         0.08150
S           0.66410         1.12200        -0.67700
Au          0.58100        -1.11870        -0.75350
S           0.66510        -3.28220        -0.67610
C          -0.73100        -3.52580        -1.81790
H           1.56430         1.81650         2.03230
H           1.86720         0.04130         1.84580
H           3.25320         1.17860         2.03520
H           2.73280         2.24190        -0.13600
H           3.01370         0.48430        -0.35960
H          -0.89950        -4.61400        -1.95150
H          -1.65490        -3.07280        -1.40060
H          -0.50270        -3.07840        -2.80820

 C S H 0
def2svp
****
Au 0
LANL2DZ
****

