%mem=60GB
%nprocshared=36
# wb97xd/gen freq=noraman opt=(maxcycles=100) scrf=(SMD,solvent=Chloroform)

 Au_linear conformer 14 726

-1 1
C           8.78400        42.30840        20.68010
C          10.06180        41.64750        20.18610
S          11.25880        41.50650        21.55020
Au         12.95580        40.43330        20.14700
S          14.65270        39.36000        18.74330
C          15.84680        39.21960        20.10500
H           8.32750        41.70070        21.49010
H           9.00400        43.32690        21.06450
H           8.05920        42.39080        19.84290
H          10.50100        42.25990        19.37010
H           9.82510        40.63500        19.79530
H          16.09720        40.22860        20.49330
H          15.41930        38.59910        20.91970
H          16.77210        38.73640        19.72960

 C S H 0
def2svp
****
Au 0
LANL2DZ
****

