%mem=60GB
%nprocshared=36
# wb97xd/def2svp  freq=noraman empiricaldispersion=GD3BJ opt=(calcfc,maxcycles=100) scrf=(SMD,solvent=Chloroform)

 CH4

0 1
 C   0.68242300  -0.01887500  -0.00181700
 H   1.08256900   0.99067400  -0.11889000
 H   1.08003600  -0.43622700   0.94755400
 H   1.05878500  -0.63800100  -0.82951800
 O  -0.77083000   0.12473200   0.00150000
 H  -1.14928800  -0.80105100  -0.00024300

