%mem=96GB
%nprocshared=24
# wb97xd/genecp freq=noraman opt=(maxcycles=100)

 comp0_ 4

0 1
C          -2.93910         2.59650         2.23410
C          -1.79560         2.23080         1.34150
O          -1.55600         1.00170         1.17000
Ir         -0.07120         0.18850         0.02160
C           1.53730        -0.65920        -1.03450
C           2.73110        -0.73560        -0.32210
C           2.66550        -0.20690         1.05030
N           1.45810         0.28230         1.44780
C           1.26450         0.79230         2.69550
C           2.32170         0.82640         3.60600
C           3.57000         0.33330         3.22370
C           3.75180        -0.18850         1.94120
C           3.87130        -1.29050        -0.92950
C           3.79430        -1.76080        -2.24640
C           2.58940        -1.67920        -2.95480
C           1.45630        -1.12700        -2.34940
N          -1.53620        -0.10030        -1.44420
C          -1.82520         0.84210        -2.38370
C          -2.81100         0.59280        -3.33980
C          -3.49140        -0.62560        -3.31930
C          -3.18400        -1.58100        -2.34810
C          -2.18620        -1.29630        -1.40090
C          -1.77390        -2.21980        -0.33100
C          -0.76680        -1.73710         0.50070
C          -0.27880        -2.51020         1.55810
C          -0.80960        -3.78450         1.78170
C          -1.82220        -4.27870         0.95070
C          -2.30860        -3.50080        -0.10740
O           0.52620         2.03890        -0.59120
C           0.01160         3.24470        -0.12420
C          -1.01500         3.33770         0.73680
C           0.64690         4.50240        -0.63220
H          -2.55810         3.13760         3.12550
H          -3.48010         1.68710         2.57310
H          -3.65110         3.24820         1.68540
H           0.29600         1.16860         2.99180
H           2.17440         1.23000         4.59940
H           4.39670         0.35430         3.92200
H           4.72470        -0.56690         1.66450
H           4.81290        -1.36600        -0.40570
H           4.66910        -2.18910        -2.71850
H           2.53460        -2.04430        -3.97220
H           0.52760        -1.06660        -2.89950
H          -1.29550         1.78400        -2.39890
H          -3.04510         1.33680        -4.09010
H          -4.25750        -0.82960        -4.05610
H          -3.72170        -2.51760        -2.34810
H           0.50390        -2.13290         2.20120
H          -0.43660        -4.38950         2.59800
H          -2.23030        -5.26560         1.12690
H          -3.08990        -3.90620        -0.73340
H          -1.32980         4.33600         1.02250
H          -0.10000         5.10530        -1.19100
H           1.04250         5.09870         0.21740
H           1.48820         4.25930        -1.31500

 C O N H 0
6-31g(d)
****
Ir 0
LANL2DZ
****

Ir 0
LANL2DZ

