%nprocshared=4
%mem=8GB
# opt freq=noraman b3lyp/3-21g scf=qc 

MeOH_SCF_error

0 1
 C  -0.68212800  -0.01985700   0.00047100
 H  -1.08038200   0.99705900  -0.00806000
 H  -1.06851900  -0.54420800  -0.88918800
 H  -1.06929400  -0.53149000   0.89474400
 O   0.76951800   0.12402100  -0.00007000
 H   1.15482100  -0.79438300   0.00024400

